# generated using pymatgen
data_FeNiSb6
_symmetry_space_group_name_H-M   'P 1'
_cell_length_a   7.86451715
_cell_length_b   7.86451715
_cell_length_c   9.09164370
_cell_angle_alpha   54.89030991
_cell_angle_beta   54.89030991
_cell_angle_gamma   70.68014136
_symmetry_Int_Tables_number   1
_chemical_formula_structural   FeNiSb6
_chemical_formula_sum   'Fe2 Ni2 Sb12'
_cell_volume   376.31267092
_cell_formula_units_Z   2
loop_
 _symmetry_equiv_pos_site_id
 _symmetry_equiv_pos_as_xyz
  1  'x, y, z'
loop_
 _atom_site_type_symbol
 _atom_site_label
 _atom_site_symmetry_multiplicity
 _atom_site_fract_x
 _atom_site_fract_y
 _atom_site_fract_z
 _atom_site_occupancy
  Fe  Fe0  1  -0.00000000  0.50000000  0.00000000  1
  Fe  Fe1  1  0.50000000  -0.00000000  0.00000000  1
  Ni  Ni2  1  0.50000000  -0.00000000  0.50000000  1
  Ni  Ni3  1  -0.00000000  0.50000000  0.50000000  1
  Sb  Sb4  1  0.67222169  0.67222169  0.16744770  1
  Sb  Sb5  1  0.32777831  0.32777831  0.83255230  1
  Sb  Sb6  1  0.65973137  0.65973137  0.49725851  1
  Sb  Sb7  1  0.34026863  0.34026863  0.50274149  1
  Sb  Sb8  1  0.84512595  0.16272941  0.33084944  1
  Sb  Sb9  1  0.15487405  0.83727059  0.66915056  1
  Sb  Sb10  1  0.16272941  0.84512595  0.33084944  1
  Sb  Sb11  1  0.83727059  0.15487405  0.66915056  1
  Sb  Sb12  1  0.49317103  0.82345139  0.84501919  1
  Sb  Sb13  1  0.50682897  0.17654861  0.15498081  1
  Sb  Sb14  1  0.17654861  0.50682897  0.15498081  1
  Sb  Sb15  1  0.82345139  0.49317103  0.84501919  1
