# generated using pymatgen
data_TiFeGe2
_symmetry_space_group_name_H-M   'P 1'
_cell_length_a   7.89015469
_cell_length_b   8.96698212
_cell_length_c   9.76835389
_cell_angle_alpha   90.00000000
_cell_angle_beta   90.00000000
_cell_angle_gamma   90.00000000
_symmetry_Int_Tables_number   1
_chemical_formula_structural   TiFeGe2
_chemical_formula_sum   'Ti12 Fe12 Ge24'
_cell_volume   691.11959508
_cell_formula_units_Z   12
loop_
 _symmetry_equiv_pos_site_id
 _symmetry_equiv_pos_as_xyz
  1  'x, y, z'
loop_
 _atom_site_type_symbol
 _atom_site_label
 _atom_site_symmetry_multiplicity
 _atom_site_fract_x
 _atom_site_fract_y
 _atom_site_fract_z
 _atom_site_occupancy
  Ti  Ti0  1  0.73965927  0.83006661  0.04676432  1
  Ti  Ti1  1  0.73965927  0.16993339  0.95323568  1
  Ti  Ti2  1  0.26034073  0.66993339  0.54676432  1
  Ti  Ti3  1  0.26034073  0.33006661  0.45323568  1
  Ti  Ti4  1  0.26034073  0.16993339  0.95323568  1
  Ti  Ti5  1  0.26034073  0.83006661  0.04676432  1
  Ti  Ti6  1  0.73965927  0.33006661  0.45323568  1
  Ti  Ti7  1  0.73965927  0.66993339  0.54676432  1
  Ti  Ti8  1  0.50000000  0.83273495  0.32020230  1
  Ti  Ti9  1  0.50000000  0.16726505  0.67979770  1
  Ti  Ti10  1  0.50000000  0.66726505  0.82020230  1
  Ti  Ti11  1  0.50000000  0.33273495  0.17979770  1
  Fe  Fe12  1  0.74996966  0.58125099  0.24705019  1
  Fe  Fe13  1  0.74996966  0.41874901  0.75294981  1
  Fe  Fe14  1  0.25003034  0.91874901  0.74705019  1
  Fe  Fe15  1  0.25003034  0.08125099  0.25294981  1
  Fe  Fe16  1  0.25003034  0.41874901  0.75294981  1
  Fe  Fe17  1  0.25003034  0.58125099  0.24705019  1
  Fe  Fe18  1  0.74996966  0.08125099  0.25294981  1
  Fe  Fe19  1  0.74996966  0.91874901  0.74705019  1
  Fe  Fe20  1  0.74595796  0.00000000  0.50000000  1
  Fe  Fe21  1  0.25404204  0.50000000  -0.00000000  1
  Fe  Fe22  1  0.25404204  0.00000000  0.50000000  1
  Fe  Fe23  1  0.74595796  0.50000000  -0.00000000  1
  Ge  Ge24  1  0.83844490  0.82756005  0.31746003  1
  Ge  Ge25  1  0.83844490  0.17243995  0.68253997  1
  Ge  Ge26  1  0.16155510  0.67243995  0.81746003  1
  Ge  Ge27  1  0.16155510  0.32756005  0.18253997  1
  Ge  Ge28  1  0.16155510  0.17243995  0.68253997  1
  Ge  Ge29  1  0.16155510  0.82756005  0.31746003  1
  Ge  Ge30  1  0.83844490  0.32756005  0.18253997  1
  Ge  Ge31  1  0.83844490  0.67243995  0.81746003  1
  Ge  Ge32  1  0.50000000  0.54112946  0.37886594  1
  Ge  Ge33  1  0.50000000  0.45887054  0.62113406  1
  Ge  Ge34  1  0.50000000  0.95887054  0.87886594  1
  Ge  Ge35  1  0.50000000  0.04112946  0.12113406  1
  Ge  Ge36  1  -0.00000000  0.53342987  0.37823153  1
  Ge  Ge37  1  -0.00000000  0.46657013  0.62176847  1
  Ge  Ge38  1  -0.00000000  0.96657013  0.87823153  1
  Ge  Ge39  1  -0.00000000  0.03342987  0.12176847  1
  Ge  Ge40  1  0.50000000  0.63283580  0.10115778  1
  Ge  Ge41  1  0.50000000  0.36716420  0.89884222  1
  Ge  Ge42  1  0.50000000  0.86716420  0.60115778  1
  Ge  Ge43  1  0.50000000  0.13283580  0.39884222  1
  Ge  Ge44  1  -0.00000000  0.63675666  0.08949434  1
  Ge  Ge45  1  -0.00000000  0.36324334  0.91050566  1
  Ge  Ge46  1  -0.00000000  0.86324334  0.58949434  1
  Ge  Ge47  1  -0.00000000  0.13675666  0.41050566  1
