# generated using pymatgen
data_NiSb6Ru
_symmetry_space_group_name_H-M   'P 1'
_cell_length_a   7.95998428
_cell_length_b   7.95998428
_cell_length_c   9.21425964
_cell_angle_alpha   55.11595296
_cell_angle_beta   55.11595296
_cell_angle_gamma   71.02778725
_symmetry_Int_Tables_number   1
_chemical_formula_structural   NiSb6Ru
_chemical_formula_sum   'Ni2 Sb12 Ru2'
_cell_volume   392.86217139
_cell_formula_units_Z   2
loop_
 _symmetry_equiv_pos_site_id
 _symmetry_equiv_pos_as_xyz
  1  'x, y, z'
loop_
 _atom_site_type_symbol
 _atom_site_label
 _atom_site_symmetry_multiplicity
 _atom_site_fract_x
 _atom_site_fract_y
 _atom_site_fract_z
 _atom_site_occupancy
  Ni  Ni0  1  -0.00000000  0.50000000  0.50000000  1
  Ni  Ni1  1  0.50000000  -0.00000000  0.50000000  1
  Sb  Sb2  1  0.15567107  0.15567107  0.17854769  1
  Sb  Sb3  1  0.84432893  0.84432893  0.82145231  1
  Sb  Sb4  1  0.84296023  0.84296023  0.49656003  1
  Sb  Sb5  1  0.15703977  0.15703977  0.50343997  1
  Sb  Sb6  1  0.81904049  0.50629962  0.33850496  1
  Sb  Sb7  1  0.18095951  0.49370038  0.66149504  1
  Sb  Sb8  1  0.50629962  0.81904049  0.33850496  1
  Sb  Sb9  1  0.49370038  0.18095951  0.66149504  1
  Sb  Sb10  1  0.66475978  0.34053018  0.84072650  1
  Sb  Sb11  1  0.33524022  0.65946982  0.15927350  1
  Sb  Sb12  1  0.65946982  0.33524022  0.15927350  1
  Sb  Sb13  1  0.34053018  0.66475978  0.84072650  1
  Ru  Ru14  1  -0.00000000  0.50000000  0.00000000  1
  Ru  Ru15  1  0.50000000  -0.00000000  0.00000000  1
